
**** 11/29/18 23:34:14 ******* PSpice Lite (March 2016) ******* ID# 10813 ****

 ** Profile: "SCHEMATIC1-multiplexer_sim"  [ C:\Users\Thomas Nabelek\Desktop\LED Multiplexing\LED_Multiplexer_without_transistors\vA\


 ****     CIRCUIT DESCRIPTION


******************************************************************************




** Creating circuit file "multiplexer_sim.cir" 
** WARNING: THIS AUTOMATICALLY GENERATED FILE MAY BE OVERWRITTEN BY SUBSEQUENT SIMULATIONS

*Libraries: 
* Profile Libraries :
* Local Libraries :
* From [PSPICE NETLIST] section of C:\SPB_Data\cdssetup\OrCAD_PSpice\17.2.0\PSpice.ini file:
.lib "nomd.lib" 

*Analysis directives: 
.TRAN  0 1000ns 0 
.OPTIONS ADVCONV
.PROBE64 V(alias(*)) I(alias(*)) W(alias(*)) D(alias(*)) NOISE(alias(*)) 
.INC "..\SCHEMATIC1.net" 



**** INCLUDING SCHEMATIC1.net ****
* source LED MULTIPLEXER
Q_Q-C1         N04822 N00506 0 Q2N3904
Q_Q-C2         N04818 N00499 0 Q2N3904
Q_Q-C3         N04814 N00492 0 Q2N3904
R_R-C1         N02465 N00506  700 TC=0,0 
R_R-C2         N01883 N00499  700 TC=0,0 
R_R-C3         N01948 N00492  700 TC=0,0 
V_Pin-C1         N02465 0 5.2VDC
V_Pin-C2         N01883 0 5.2VDC
V_Pin-C3         N01948 0 5.2VDC
D_LED-R3C3         N05419 N04814 LW_541C-TYP 
D_LED-R3C2         N05419 N04818 LW_541C-TYP 
D_LED-R3C1         N05419 N04822 LW_541C-TYP 
D_LED-R2C2         N05421 N04818 LW_541C-TYP 
D_LED-R2C3         N05421 N04814 LW_541C-TYP 
D_LED-R2C1         N05421 N04822 LW_541C-TYP 
D_LED-R1C1         N05542 N04822 LW_541C-TYP 
D_LED-R1C2         N05542 N04818 LW_541C-TYP 
D_LED-R1C3         N05542 N04814 LW_541C-TYP 
R_R-R1         N05542 N08452  20 TC=0,0 
R_R-R2         N05421 N06293  20 TC=0,0 
R_R-R3         N05419 N06354  20 TC=0,0 
V_Pin-R2         N06293 0 5.2VDC
V_Pin-R3         N06354 0 5.2VDC
V_Pin-R1         N08452 0 5.2VDC

**** RESUMING multiplexer_sim.cir ****
.END

**** 11/29/18 23:34:14 ******* PSpice Lite (March 2016) ******* ID# 10813 ****

 ** Profile: "SCHEMATIC1-multiplexer_sim"  [ C:\Users\Thomas Nabelek\Desktop\LED Multiplexing\LED_Multiplexer_without_transistors\vA\


 ****     Diode MODEL PARAMETERS


******************************************************************************




               LW_541C-TYP     
          IS  414.480000E-15 
           N    5            
          RS   22.499        


**** 11/29/18 23:34:14 ******* PSpice Lite (March 2016) ******* ID# 10813 ****

 ** Profile: "SCHEMATIC1-multiplexer_sim"  [ C:\Users\Thomas Nabelek\Desktop\LED Multiplexing\LED_Multiplexer_without_transistors\vA\


 ****     BJT MODEL PARAMETERS


******************************************************************************




               Q2N3904         
               NPN             
       LEVEL    1            
          IS    6.734000E-15 
          BF  416.4          
          NF    1            
         VAF   74.03         
         IKF     .06678      
         ISE    6.734000E-15 
          NE    1.259        
          BR     .7371       
          NR    1            
         ISS    0            
          RB   10            
          RE    0            
          RC    1            
         CJE    4.493000E-12 
         VJE     .75         
         MJE     .2593       
         CJC    3.638000E-12 
         VJC     .75         
         MJC     .3085       
        XCJC    1            
         CJS    0            
         VJS     .75         
          TF  301.200000E-12 
         XTF    2            
         VTF    4            
         ITF     .4          
          TR  239.500000E-09 
         XTB    1.5          
          KF    0            
          AF    1            
          CN    2.42         
           D     .87         


**** 11/29/18 23:34:14 ******* PSpice Lite (March 2016) ******* ID# 10813 ****

 ** Profile: "SCHEMATIC1-multiplexer_sim"  [ C:\Users\Thomas Nabelek\Desktop\LED Multiplexing\LED_Multiplexer_without_transistors\vA\


 ****     INITIAL TRANSIENT SOLUTION       TEMPERATURE =   27.000 DEG C


******************************************************************************



 NODE   VOLTAGE     NODE   VOLTAGE     NODE   VOLTAGE     NODE   VOLTAGE


(N00492)     .8586 (N00499)     .8586 (N00506)     .8586 (N01883)    5.2000     

(N01948)    5.2000 (N02465)    5.2000 (N04814)     .1619 (N04818)     .1619     

(N04822)     .1619 (N05419)    3.8599 (N05421)    3.8599 (N05542)    3.8599     

(N06293)    5.2000 (N06354)    5.2000 (N08452)    5.2000 




    VOLTAGE SOURCE CURRENTS
    NAME         CURRENT

    V_Pin-C1    -6.202E-03
    V_Pin-C2    -6.202E-03
    V_Pin-C3    -6.202E-03
    V_Pin-R2    -6.700E-02
    V_Pin-R3    -6.700E-02
    V_Pin-R1    -6.700E-02

    TOTAL POWER DISSIPATION   1.14E+00  WATTS



          JOB CONCLUDED

**** 11/29/18 23:34:14 ******* PSpice Lite (March 2016) ******* ID# 10813 ****

 ** Profile: "SCHEMATIC1-multiplexer_sim"  [ C:\Users\Thomas Nabelek\Desktop\LED Multiplexing\LED_Multiplexer_without_transistors\vA\


 ****     JOB STATISTICS SUMMARY


******************************************************************************



  Total job time (using Solver 1)   =         .06
