
**** 12/09/18 22:48:15 ******* PSpice Lite (March 2016) ******* ID# 10813 ****

 ** Profile: "SCHEMATIC1-multiplexer_sim"  [ C:\Users\Thomas Nabelek\Desktop\LED_Multiplexer\stage_2_v_B\led multiplexer-pspicefiles\


 ****     CIRCUIT DESCRIPTION


******************************************************************************




** Creating circuit file "multiplexer_sim.cir" 
** WARNING: THIS AUTOMATICALLY GENERATED FILE MAY BE OVERWRITTEN BY SUBSEQUENT SIMULATIONS

*Libraries: 
* Profile Libraries :
* Local Libraries :
* From [PSPICE NETLIST] section of C:\SPB_Data\cdssetup\OrCAD_PSpice\17.2.0\PSpice.ini file:
.lib "nomd.lib" 

*Analysis directives: 
.TRAN  0 1000ns 0 
.OPTIONS ADVCONV
.PROBE64 V(alias(*)) I(alias(*)) W(alias(*)) D(alias(*)) NOISE(alias(*)) 
.INC "..\SCHEMATIC1.net" 



**** INCLUDING SCHEMATIC1.net ****
* source LED MULTIPLEXER
Q_Q-C1         N04822 N00506 0 Q2N3904
Q_Q-C2         N04818 N00499 0 Q2N3904
Q_Q-C3         N04814 N00492 0 Q2N3904
R_R-C1         C1 N00506  {B_OHM} TC=0,0 
R_R-C2         C2 N00499  {B_OHM} TC=0,0 
R_R-C3         C3 N00492  {B_OHM} TC=0,0 
D_LED-R3C3         N05419 N04814 LW_541C-TYP 
D_LED-R3C2         N05419 N04818 LW_541C-TYP 
D_LED-R3C1         N05419 N04822 LW_541C-TYP 
D_LED-R2C2         N05421 N04818 LW_541C-TYP 
D_LED-R2C3         N05421 N04814 LW_541C-TYP 
D_LED-R2C1         N05421 N04822 LW_541C-TYP 
D_LED-R1C1         N05542 N04822 LW_541C-TYP 
D_LED-R1C2         N05542 N04818 LW_541C-TYP 
D_LED-R1C3         N05542 N04814 LW_541C-TYP 
R_R-R1         N05542 R1  {CL_OHM} TC=0,0 
R_R-R2         N05421 R2  {CL_OHM} TC=0,0 
R_R-R3         N05419 R3  {CL_OHM} TC=0,0 
V_Pin-R5         R1 0 5Vdc
V_Pin-R6         R2 0 {PINS}
V_Pin-R7         R3 0 {PINS}
V_Pin-R9         C2 0 {PINS}
V_Pin-R8         C1 0 5Vdc
V_Pin-R10         C3 0 {PINS}
.PARAM  cl_ohm=47 pins=5vdc b_ohm=2.2k

**** RESUMING multiplexer_sim.cir ****
.END

**** 12/09/18 22:48:15 ******* PSpice Lite (March 2016) ******* ID# 10813 ****

 ** Profile: "SCHEMATIC1-multiplexer_sim"  [ C:\Users\Thomas Nabelek\Desktop\LED_Multiplexer\stage_2_v_B\led multiplexer-pspicefiles\


 ****     Diode MODEL PARAMETERS


******************************************************************************




               LW_541C-TYP     
          IS  414.480000E-15 
           N    5            
          RS   22.499        


**** 12/09/18 22:48:15 ******* PSpice Lite (March 2016) ******* ID# 10813 ****

 ** Profile: "SCHEMATIC1-multiplexer_sim"  [ C:\Users\Thomas Nabelek\Desktop\LED_Multiplexer\stage_2_v_B\led multiplexer-pspicefiles\


 ****     BJT MODEL PARAMETERS


******************************************************************************




               Q2N3904         
               NPN             
       LEVEL    1            
          IS    6.734000E-15 
          BF  416.4          
          NF    1            
         VAF   74.03         
         IKF     .06678      
         ISE    6.734000E-15 
          NE    1.259        
          BR     .7371       
          NR    1            
         ISS    0            
          RB   10            
          RE    0            
          RC    1            
         CJE    4.493000E-12 
         VJE     .75         
         MJE     .2593       
         CJC    3.638000E-12 
         VJC     .75         
         MJC     .3085       
        XCJC    1            
         CJS    0            
         VJS     .75         
          TF  301.200000E-12 
         XTF    2            
         VTF    4            
         ITF     .4          
          TR  239.500000E-09 
         XTB    1.5          
          KF    0            
          AF    1            
          CN    2.42         
           D     .87         


**** 12/09/18 22:48:15 ******* PSpice Lite (March 2016) ******* ID# 10813 ****

 ** Profile: "SCHEMATIC1-multiplexer_sim"  [ C:\Users\Thomas Nabelek\Desktop\LED_Multiplexer\stage_2_v_B\led multiplexer-pspicefiles\


 ****     INITIAL TRANSIENT SOLUTION       TEMPERATURE =   27.000 DEG C


******************************************************************************



 NODE   VOLTAGE     NODE   VOLTAGE     NODE   VOLTAGE     NODE   VOLTAGE


(   C1)    5.0000  (   C2)    5.0000  (   C3)    5.0000  (   R1)    5.0000      

(   R2)    5.0000  (   R3)    5.0000  (N00492)     .7876 (N00499)     .7876     

(N00506)     .7876 (N04814)     .1302 (N04818)     .1302 (N04822)     .1302     

(N05419)    3.4752 (N05421)    3.4752 (N05542)    3.4752 




    VOLTAGE SOURCE CURRENTS
    NAME         CURRENT

    V_Pin-R5    -3.244E-02
    V_Pin-R6    -3.244E-02
    V_Pin-R7    -3.244E-02
    V_Pin-R9    -1.915E-03
    V_Pin-R8    -1.915E-03
    V_Pin-R10   -1.915E-03

    TOTAL POWER DISSIPATION   5.15E-01  WATTS



          JOB CONCLUDED

**** 12/09/18 22:48:15 ******* PSpice Lite (March 2016) ******* ID# 10813 ****

 ** Profile: "SCHEMATIC1-multiplexer_sim"  [ C:\Users\Thomas Nabelek\Desktop\LED_Multiplexer\stage_2_v_B\led multiplexer-pspicefiles\


 ****     JOB STATISTICS SUMMARY


******************************************************************************



  Total job time (using Solver 1)   =         .08
